<?xml version="1.0" encoding="UTF-8"?>

<!-- generated on 2022-10-09 10:59:08 by Eclipse SUMO netedit Version 1.10.0
<configuration xmlns:xsi="http://www.w3.org/2001/XMLSchema-instance" xsi:noNamespaceSchemaLocation="http://sumo.dlr.de/xsd/netconvertConfiguration.xsd">

    <input>
        <sumo-net-file value="/home/veins/artery/scenarios/highway-spherix/roadswide.net.xml"/>
    </input>

    <output>
        <output-file value="/home/veins/artery/scenarios/highway-spherix/roadswide.net.xml"/>
    </output>

    <processing>
        <geometry.min-radius.fix.railways value="false"/>
        <geometry.max-grade.fix value="false"/>
        <offset.disable-normalization value="true"/>
        <lefthand value="false"/>
    </processing>

    <junctions>
        <no-internal-links value="true"/>
        <no-turnarounds value="true"/>
        <junctions.corner-detail value="5"/>
        <junctions.limit-turn-speed value="5.5"/>
        <rectangular-lane-cut value="false"/>
    </junctions>

    <pedestrian>
        <walkingareas value="false"/>
    </pedestrian>

    <netedit>
        <route-files value="/home/veins/artery/scenarios/highway-spherix/demandswide_50.rou.xml"/>
    </netedit>

    <report>
        <aggregate-warnings value="5"/>
    </report>

</configuration>
-->

<routes xmlns:xsi="http://www.w3.org/2001/XMLSchema-instance" xsi:noNamespaceSchemaLocation="http://sumo.dlr.de/xsd/routes_file.xsd">
    <vType id="DEFAULT_VEHTYPE" maxSpeed="25.00" vClass="passenger"/>
    <route edges="gneE0" color="yellow" id="route_0"/>
    <route edges="gneE1" color="yellow" id="route_1"/>
    <route edges="gneE11" color="yellow" id="route_10"/>
    <route edges="gneE10" color="yellow" id="route_11"/>
    <route edges="gneE12" color="yellow" id="route_12"/>
    <route edges="gneE13" color="yellow" id="route_13"/>
    <route edges="gneE2" color="yellow" id="route_2"/>
    <route edges="gneE3" color="yellow" id="route_3"/>
    <route edges="gneE4" color="yellow" id="route_4"/>
    <route edges="gneE5" color="yellow" id="route_5"/>
    <route edges="gneE6" color="yellow" id="route_6"/>
    <route edges="gneE7" color="yellow" id="route_7"/>
    <route edges="gneE8" color="yellow" id="route_8"/>
    <route edges="gneE9" color="yellow" id="route_9"/>
    <flow id="flow_0" begin="0.00" departLane="random" departSpeed="10.00" route="route_0" end="3600.00" vehsPerHour="6000.00"/>
    <flow id="flow_1" begin="0.00" departLane="random" departSpeed="10.00" route="route_1" end="3600.00" vehsPerHour="6000.00"/>
    <flow id="flow_10" begin="0.00" departLane="random" departSpeed="10.00" route="route_11" end="3600.00" vehsPerHour="6000.00"/>
    <flow id="flow_11" begin="0.00" departLane="random" departSpeed="10.00" route="route_10" end="3600.00" vehsPerHour="6000.00"/>
    <flow id="flow_12" begin="0.00" departLane="random" departSpeed="10.00" route="route_12" end="3600.00" vehsPerHour="6000.00"/>
    <flow id="flow_13" begin="0.00" departLane="random" departSpeed="10.00" route="route_13" end="3600.00" vehsPerHour="6000.00"/>
    <flow id="flow_2" begin="0.00" departLane="random" departSpeed="10.00" route="route_2" end="3600.00" vehsPerHour="6000.00"/>
    <flow id="flow_3" begin="0.00" departLane="random" departSpeed="10.00" route="route_3" end="3600.00" vehsPerHour="6000.00"/>
    <flow id="flow_4" begin="0.00" departLane="random" departSpeed="10.00" route="route_4" end="3600.00" vehsPerHour="6000.00"/>
    <flow id="flow_5" begin="0.00" departLane="random" departSpeed="10.00" route="route_5" end="3600.00" vehsPerHour="6000.00"/>
    <flow id="flow_6" begin="0.00" departLane="random" departSpeed="10.00" route="route_6" end="3600.00" vehsPerHour="6000.00"/>
    <flow id="flow_7" begin="0.00" departLane="random" departSpeed="10.00" route="route_7" end="3600.00" vehsPerHour="6000.00"/>
    <flow id="flow_8" begin="0.00" departLane="random" departSpeed="10.00" route="route_8" end="3600.00" vehsPerHour="6000.00"/>
    <flow id="flow_9" begin="0.00" departLane="random" departSpeed="10.00" route="route_9" end="3600.00" vehsPerHour="6000.00"/>
</routes>
