<?xml version="1.0" encoding="UTF-8"?>

<!-- generated on 08/08/22 11:38:23 by Eclipse SUMO GUI Version 1.7.0
-->

<configuration xmlns:xsi="http://www.w3.org/2001/XMLSchema-instance" xsi:noNamespaceSchemaLocation="http://sumo.dlr.de/xsd/sumoConfiguration.xsd">

    <input>
        <net-file value="highway_segment.net.xml"/>
        <route-files value="highway.rou.xml"/>
    </input>

</configuration>
