<?xml version="1.0" encoding="UTF-8"?>

<!-- generated on 08/08/22 11:36:08 by Eclipse SUMO netedit Version 1.7.0
<configuration xmlns:xsi="http://www.w3.org/2001/XMLSchema-instance" xsi:noNamespaceSchemaLocation="http://sumo.dlr.de/xsd/netconvertConfiguration.xsd">

    <input>
        <sumo-net-file value="C:\Users\nxf67027\Documents\CCPPC\highway\highway_segment.net.xml"/>
    </input>

    <output>
        <output-file value="C:\Users\nxf67027\Documents\CCPPC\highway\highway_segment.net.xml"/>
    </output>

    <processing>
        <geometry.min-radius.fix.railways value="false"/>
        <geometry.max-grade.fix value="false"/>
        <offset.disable-normalization value="true"/>
        <lefthand value="false"/>
    </processing>

    <junctions>
        <no-internal-links value="true"/>
        <no-turnarounds value="true"/>
        <junctions.corner-detail value="5"/>
        <junctions.limit-turn-speed value="5.5"/>
        <rectangular-lane-cut value="false"/>
    </junctions>

    <pedestrian>
        <walkingareas value="false"/>
    </pedestrian>

    <netedit>
        <route-files value="C:\Users\nxf67027\Documents\CCPPC\highway\highway.rou.xml"/>
    </netedit>

    <report>
        <aggregate-warnings value="5"/>
    </report>

</configuration>
-->

<net version="1.6" junctionCornerDetail="5" limitTurnSpeed="5.50" xmlns:xsi="http://www.w3.org/2001/XMLSchema-instance" xsi:noNamespaceSchemaLocation="http://sumo.dlr.de/xsd/net_file.xsd">

    <location netOffset="0.00,0.00" convBoundary="0.00,0.00,1000.00,0.00" origBoundary="-10000000000.00,-10000000000.00,10000000000.00,10000000000.00" projParameter="!"/>

    <edge id="e0lr" from="1" to="0" priority="-1">
        <lane id="e0lr_0" index="0" speed="13.89" length="1000.00" shape="1000.00,8.00 0.00,8.00"/>
        <lane id="e0lr_1" index="1" speed="13.89" length="1000.00" shape="1000.00,4.80 0.00,4.80"/>
        <lane id="e0lr_2" index="2" speed="13.89" length="1000.00" shape="1000.00,1.60 0.00,1.60"/>
    </edge>
    <edge id="e0rl" from="0" to="1" priority="-1">
        <lane id="e0rl_0" index="0" speed="13.89" length="1000.00" shape="0.00,-8.00 1000.00,-8.00"/>
        <lane id="e0rl_1" index="1" speed="13.89" length="1000.00" shape="0.00,-4.80 1000.00,-4.80"/>
        <lane id="e0rl_2" index="2" speed="13.89" length="1000.00" shape="0.00,-1.60 1000.00,-1.60"/>
    </edge>

    <junction id="0" type="dead_end" x="0.00" y="0.00" incLanes="e0lr_0 e0lr_1 e0lr_2" intLanes="" shape="0.00,0.00 0.00,9.60 0.00,0.00"/>
    <junction id="1" type="dead_end" x="1000.00" y="0.00" incLanes="e0rl_0 e0rl_1 e0rl_2" intLanes="" shape="1000.00,0.00 1000.00,-9.60 1000.00,0.00"/>

</net>
