<?xml version="1.0" encoding="UTF-8"?>

<!-- generated on 2022-04-20 17:35:09 by Eclipse SUMO netedit Version 1.9.2
<configuration xmlns:xsi="http://www.w3.org/2001/XMLSchema-instance" xsi:noNamespaceSchemaLocation="http://sumo.dlr.de/xsd/netconvertConfiguration.xsd">

    <input>
        <sumo-net-file value="/Users/thinhhoang/opportunist/controlled_intersection/roads.net.xml"/>
    </input>

    <output>
        <output-file value="/Users/thinhhoang/opportunist/controlled_intersection/roads.net.xml"/>
    </output>

    <processing>
        <geometry.min-radius.fix.railways value="false"/>
        <geometry.max-grade.fix value="false"/>
        <offset.disable-normalization value="true"/>
        <lefthand value="false"/>
    </processing>

    <junctions>
        <no-turnarounds value="true"/>
        <junctions.corner-detail value="5"/>
        <junctions.limit-turn-speed value="5.5"/>
        <rectangular-lane-cut value="false"/>
    </junctions>

    <pedestrian>
        <walkingareas value="false"/>
    </pedestrian>

    <netedit>
        <route-files value="/Users/thinhhoang/opportunist/controlled_intersection/routes.rou.xml"/>
    </netedit>

    <report>
        <aggregate-warnings value="5"/>
    </report>

</configuration>
-->

<routes xmlns:xsi="http://www.w3.org/2001/XMLSchema-instance" xsi:noNamespaceSchemaLocation="http://sumo.dlr.de/xsd/routes_file.xsd">
    <vType id="car_1" maxSpeed="80.00" tau="2.00"/>
    <vType id="car_2" maxSpeed="40.00" color="0,103,255"/>
    <flow id="flow_0" begin="0.00" departLane="random" from="gneE0" to="gneE3" end="3600.00" number="200"/>
    <flow id="flow_1" begin="0.00" departLane="random" from="gneE0" to="gneE2" end="3600.00" number="200"/>
    <flow id="flow_10" begin="0.00" departLane="random" from="-gneE1" to="gneE3" end="3600.00" number="200"/>
    <flow id="flow_11" begin="0.00" departLane="random" from="-gneE1" to="gneE2" end="3600.00" number="200"/>
    <flow id="flow_2" begin="0.00" departLane="random" from="gneE0" to="gneE1" end="3600.00" number="200"/>
    <flow id="flow_3" begin="0.00" departLane="random" from="-gneE2" to="gneE1" end="3600.00" number="200"/>
    <flow id="flow_4" begin="0.00" departLane="random" from="-gneE2" to="-gneE0" end="3600.00" number="200"/>
    <flow id="flow_5" begin="0.00" departLane="random" from="-gneE2" to="gneE3" end="3600.00" number="200"/>
    <flow id="flow_6" begin="0.00" departLane="random" from="-gneE3" to="-gneE0" end="3600.00" number="200"/>
    <flow id="flow_7" begin="0.00" departLane="random" from="-gneE3" to="gneE1" end="3600.00" number="200"/>
    <flow id="flow_8" begin="0.00" departLane="random" from="-gneE3" to="gneE2" end="3600.00" number="200"/>
    <flow id="flow_9" begin="0.00" departLane="random" from="-gneE1" to="-gneE0" end="3600.00" number="200"/>
</routes>
