<?xml version="1.0" encoding="UTF-8"?>

<!-- generated on 07/28/22 13:55:23 by Eclipse SUMO GUI Version 1.7.0
-->

<configuration xmlns:xsi="http://www.w3.org/2001/XMLSchema-instance" xsi:noNamespaceSchemaLocation="http://sumo.dlr.de/xsd/sumoConfiguration.xsd">

    <input>
        <net-file value="roads.net.xml"/>
        <route-files value="demands.rou.xml"/>
    </input>

    <step-length value="0.1" />

</configuration>
