<?xml version="1.0" encoding="UTF-8"?>



<!-- generated on 07/28/22 13:42:52 by Eclipse SUMO netedit Version 1.7.0

<configuration xmlns:xsi="http://www.w3.org/2001/XMLSchema-instance" xsi:noNamespaceSchemaLocation="http://sumo.dlr.de/xsd/netconvertConfiguration.xsd">



    <output>

        <output-file value="C:\Users\nxf67027\Documents\CCPPC\highway-one\roads.net.xml"/>

    </output>



    <processing>

        <offset.disable-normalization value="true"/>

    </processing>



    <junctions>

        <no-turnarounds value="true"/>

    </junctions>



    <report>

        <aggregate-warnings value="5"/>

    </report>



</configuration>

-->



<net version="1.6" junctionCornerDetail="5" limitTurnSpeed="5.50" xmlns:xsi="http://www.w3.org/2001/XMLSchema-instance" xsi:noNamespaceSchemaLocation="http://sumo.dlr.de/xsd/net_file.xsd">



    <location netOffset="0.00,0.00" convBoundary="0.00,0.00,500.00,0.00" origBoundary="10000000000.00,10000000000.00,-10000000000.00,-10000000000.00" projParameter="!"/>



    <edge id="gneE0" from="gneJ0" to="gneJ1" priority="-1">

        <lane id="gneE0_0" index="0" speed="13.89" length="500.00" shape="0.00,-14.40 500.00,-14.40"/>

        <lane id="gneE0_1" index="1" speed="13.89" length="500.00" shape="0.00,-11.20 500.00,-11.20"/>

        <lane id="gneE0_2" index="2" speed="13.89" length="500.00" shape="0.00,-8.00 500.00,-8.00"/>

        <lane id="gneE0_3" index="3" speed="13.89" length="500.00" shape="0.00,-4.80 500.00,-4.80"/>

        <lane id="gneE0_4" index="4" speed="13.89" length="500.00" shape="0.00,-1.60 500.00,-1.60"/>

    </edge>



    <junction id="gneJ0" type="dead_end" x="0.00" y="0.00" incLanes="" intLanes="" shape="0.00,0.00 0.00,-16.00"/>

    <junction id="gneJ1" type="dead_end" x="500.00" y="0.00" incLanes="gneE0_0 gneE0_1 gneE0_2 gneE0_3 gneE0_4" intLanes="" shape="500.00,-16.00 500.00,0.00"/>



</net>