<?xml version="1.0" encoding="UTF-8"?>

<!-- generated on 2022-04-20 17:34:46 by Eclipse SUMO netedit Version 1.9.2
<configuration xmlns:xsi="http://www.w3.org/2001/XMLSchema-instance" xsi:noNamespaceSchemaLocation="http://sumo.dlr.de/xsd/netconvertConfiguration.xsd">

    <input>
        <sumo-net-file value="/Users/thinhhoang/opportunist/controlled_intersection/roads.net.xml"/>
    </input>

    <output>
        <output-file value="/Users/thinhhoang/opportunist/controlled_intersection/roads.net.xml"/>
    </output>

    <processing>
        <geometry.min-radius.fix.railways value="false"/>
        <geometry.max-grade.fix value="false"/>
        <offset.disable-normalization value="true"/>
        <lefthand value="false"/>
    </processing>

    <junctions>
        <no-turnarounds value="true"/>
        <junctions.corner-detail value="5"/>
        <junctions.limit-turn-speed value="5.5"/>
        <rectangular-lane-cut value="false"/>
    </junctions>

    <pedestrian>
        <walkingareas value="false"/>
    </pedestrian>

    <report>
        <aggregate-warnings value="5"/>
    </report>

</configuration>
-->

<net version="1.9" junctionCornerDetail="5" limitTurnSpeed="5.50" xmlns:xsi="http://www.w3.org/2001/XMLSchema-instance" xsi:noNamespaceSchemaLocation="http://sumo.dlr.de/xsd/net_file.xsd">

    <location netOffset="0.00,0.00" convBoundary="0.00,-500.00,1000.00,500.00" origBoundary="-10000000000.00,-10000000000.00,10000000000.00,10000000000.00" projParameter="!"/>

    <edge id=":gneJ1_0" function="internal">
        <lane id=":gneJ1_0_0" index="0" speed="6.51" length="9.03" shape="492.00,13.60 491.65,11.15 490.60,9.40 488.85,8.35 486.40,8.00"/>
    </edge>
    <edge id=":gneJ1_1" function="internal">
        <lane id=":gneJ1_1_0" index="0" speed="13.89" length="27.20" shape="492.00,13.60 492.00,-13.60"/>
        <lane id=":gneJ1_1_1" index="1" speed="13.89" length="27.20" shape="495.20,13.60 495.20,-13.60"/>
        <lane id=":gneJ1_1_2" index="2" speed="13.89" length="27.20" shape="498.40,13.60 498.40,-13.60"/>
    </edge>
    <edge id=":gneJ1_4" function="internal">
        <lane id=":gneJ1_4_0" index="0" speed="10.36" length="7.98" shape="498.40,13.60 499.35,6.95 500.00,5.87"/>
    </edge>
    <edge id=":gneJ1_20" function="internal">
        <lane id=":gneJ1_20_0" index="0" speed="10.36" length="16.53" shape="500.00,5.87 502.20,2.20 506.95,-0.65 513.60,-1.60"/>
    </edge>
    <edge id=":gneJ1_5" function="internal">
        <lane id=":gneJ1_5_0" index="0" speed="6.51" length="9.03" shape="513.60,8.00 511.15,8.35 509.40,9.40 508.35,11.15 508.00,13.60"/>
    </edge>
    <edge id=":gneJ1_6" function="internal">
        <lane id=":gneJ1_6_0" index="0" speed="13.89" length="27.20" shape="513.60,8.00 486.40,8.00"/>
        <lane id=":gneJ1_6_1" index="1" speed="13.89" length="27.20" shape="513.60,4.80 486.40,4.80"/>
        <lane id=":gneJ1_6_2" index="2" speed="13.89" length="27.20" shape="513.60,1.60 486.40,1.60"/>
    </edge>
    <edge id=":gneJ1_9" function="internal">
        <lane id=":gneJ1_9_0" index="0" speed="10.36" length="7.98" shape="513.60,1.60 506.95,0.65 505.87,0.00"/>
    </edge>
    <edge id=":gneJ1_21" function="internal">
        <lane id=":gneJ1_21_0" index="0" speed="10.36" length="16.53" shape="505.87,0.00 502.20,-2.20 499.35,-6.95 498.40,-13.60"/>
    </edge>
    <edge id=":gneJ1_10" function="internal">
        <lane id=":gneJ1_10_0" index="0" speed="6.51" length="9.03" shape="508.00,-13.60 508.35,-11.15 509.40,-9.40 511.15,-8.35 513.60,-8.00"/>
    </edge>
    <edge id=":gneJ1_11" function="internal">
        <lane id=":gneJ1_11_0" index="0" speed="13.89" length="27.20" shape="508.00,-13.60 508.00,13.60"/>
        <lane id=":gneJ1_11_1" index="1" speed="13.89" length="27.20" shape="504.80,-13.60 504.80,13.60"/>
        <lane id=":gneJ1_11_2" index="2" speed="13.89" length="27.20" shape="501.60,-13.60 501.60,13.60"/>
    </edge>
    <edge id=":gneJ1_14" function="internal">
        <lane id=":gneJ1_14_0" index="0" speed="10.36" length="7.98" shape="501.60,-13.60 500.65,-6.95 500.00,-5.87"/>
    </edge>
    <edge id=":gneJ1_22" function="internal">
        <lane id=":gneJ1_22_0" index="0" speed="10.36" length="16.53" shape="500.00,-5.87 497.80,-2.20 493.05,0.65 486.40,1.60"/>
    </edge>
    <edge id=":gneJ1_15" function="internal">
        <lane id=":gneJ1_15_0" index="0" speed="6.51" length="9.03" shape="486.40,-8.00 488.85,-8.35 490.60,-9.40 491.65,-11.15 492.00,-13.60"/>
    </edge>
    <edge id=":gneJ1_16" function="internal">
        <lane id=":gneJ1_16_0" index="0" speed="13.89" length="27.20" shape="486.40,-8.00 513.60,-8.00"/>
        <lane id=":gneJ1_16_1" index="1" speed="13.89" length="27.20" shape="486.40,-4.80 513.60,-4.80"/>
        <lane id=":gneJ1_16_2" index="2" speed="13.89" length="27.20" shape="486.40,-1.60 513.60,-1.60"/>
    </edge>
    <edge id=":gneJ1_19" function="internal">
        <lane id=":gneJ1_19_0" index="0" speed="10.36" length="7.98" shape="486.40,-1.60 493.05,-0.65 494.13,-0.00"/>
    </edge>
    <edge id=":gneJ1_23" function="internal">
        <lane id=":gneJ1_23_0" index="0" speed="10.36" length="16.53" shape="494.13,-0.00 497.80,2.20 500.65,6.95 501.60,13.60"/>
    </edge>

    <edge id="-gneE0" from="gneJ1" to="gneJ0" priority="-1">
        <lane id="-gneE0_0" index="0" speed="13.89" length="486.40" shape="486.40,8.00 0.00,8.00"/>
        <lane id="-gneE0_1" index="1" speed="13.89" length="486.40" shape="486.40,4.80 0.00,4.80"/>
        <lane id="-gneE0_2" index="2" speed="13.89" length="486.40" shape="486.40,1.60 0.00,1.60"/>
    </edge>
    <edge id="-gneE1" from="gneJ2" to="gneJ1" priority="-1">
        <lane id="-gneE1_0" index="0" speed="13.89" length="486.40" shape="508.00,-500.00 508.00,-13.60"/>
        <lane id="-gneE1_1" index="1" speed="13.89" length="486.40" shape="504.80,-500.00 504.80,-13.60"/>
        <lane id="-gneE1_2" index="2" speed="13.89" length="486.40" shape="501.60,-500.00 501.60,-13.60"/>
    </edge>
    <edge id="-gneE2" from="gneJ3" to="gneJ1" priority="-1">
        <lane id="-gneE2_0" index="0" speed="13.89" length="486.40" shape="1000.00,8.00 513.60,8.00"/>
        <lane id="-gneE2_1" index="1" speed="13.89" length="486.40" shape="1000.00,4.80 513.60,4.80"/>
        <lane id="-gneE2_2" index="2" speed="13.89" length="486.40" shape="1000.00,1.60 513.60,1.60"/>
    </edge>
    <edge id="-gneE3" from="gneJ4" to="gneJ1" priority="-1">
        <lane id="-gneE3_0" index="0" speed="13.89" length="486.40" shape="492.00,500.00 492.00,13.60"/>
        <lane id="-gneE3_1" index="1" speed="13.89" length="486.40" shape="495.20,500.00 495.20,13.60"/>
        <lane id="-gneE3_2" index="2" speed="13.89" length="486.40" shape="498.40,500.00 498.40,13.60"/>
    </edge>
    <edge id="gneE0" from="gneJ0" to="gneJ1" priority="-1">
        <lane id="gneE0_0" index="0" speed="13.89" length="486.40" shape="0.00,-8.00 486.40,-8.00"/>
        <lane id="gneE0_1" index="1" speed="13.89" length="486.40" shape="0.00,-4.80 486.40,-4.80"/>
        <lane id="gneE0_2" index="2" speed="13.89" length="486.40" shape="0.00,-1.60 486.40,-1.60"/>
    </edge>
    <edge id="gneE1" from="gneJ1" to="gneJ2" priority="-1">
        <lane id="gneE1_0" index="0" speed="13.89" length="486.40" shape="492.00,-13.60 492.00,-500.00"/>
        <lane id="gneE1_1" index="1" speed="13.89" length="486.40" shape="495.20,-13.60 495.20,-500.00"/>
        <lane id="gneE1_2" index="2" speed="13.89" length="486.40" shape="498.40,-13.60 498.40,-500.00"/>
    </edge>
    <edge id="gneE2" from="gneJ1" to="gneJ3" priority="-1">
        <lane id="gneE2_0" index="0" speed="13.89" length="486.40" shape="513.60,-8.00 1000.00,-8.00"/>
        <lane id="gneE2_1" index="1" speed="13.89" length="486.40" shape="513.60,-4.80 1000.00,-4.80"/>
        <lane id="gneE2_2" index="2" speed="13.89" length="486.40" shape="513.60,-1.60 1000.00,-1.60"/>
    </edge>
    <edge id="gneE3" from="gneJ1" to="gneJ4" priority="-1">
        <lane id="gneE3_0" index="0" speed="13.89" length="486.40" shape="508.00,13.60 508.00,500.00"/>
        <lane id="gneE3_1" index="1" speed="13.89" length="486.40" shape="504.80,13.60 504.80,500.00"/>
        <lane id="gneE3_2" index="2" speed="13.89" length="486.40" shape="501.60,13.60 501.60,500.00"/>
    </edge>

    <tlLogic id="gneJ1" type="static" programID="1" offset="0">
        <phase duration="42" state="GGGGgrrrrrGGGGgrrrrr"/>
        <phase duration="3"  state="yyyyyrrrrryyyyyrrrrr"/>
        <phase duration="42" state="rrrrrGGGGgrrrrrGGGGg"/>
        <phase duration="3"  state="rrrrryyyyyrrrrryyyyy"/>
    </tlLogic>
    <tlLogic id="gneJ1" type="static" programID="2" offset="0">
        <phase duration="42" state="GGGGgrrrrrGGGGgrrrrr"/>
        <phase duration="3"  state="yyyyyrrrrryyyyyrrrrr"/>
        <phase duration="42" state="rrrrrGGGGgrrrrrGGGGg"/>
        <phase duration="3"  state="rrrrryyyyyrrrrryyyyy"/>
    </tlLogic>
    <tlLogic id="gneJ1" type="static" programID="3" offset="0">
        <phase duration="42" state="GGGGgrrrrrGGGGgrrrrr"/>
        <phase duration="3"  state="yyyyyrrrrryyyyyrrrrr"/>
        <phase duration="42" state="rrrrrGGGGgrrrrrGGGGg"/>
        <phase duration="3"  state="rrrrryyyyyrrrrryyyyy"/>
    </tlLogic>

    <junction id="gneJ0" type="dead_end" x="0.00" y="0.00" incLanes="-gneE0_0 -gneE0_1 -gneE0_2" intLanes="" shape="0.00,0.00 0.00,9.60 0.00,0.00"/>
    <junction id="gneJ1" type="traffic_light" x="500.00" y="0.00" incLanes="-gneE3_0 -gneE3_1 -gneE3_2 -gneE2_0 -gneE2_1 -gneE2_2 -gneE1_0 -gneE1_1 -gneE1_2 gneE0_0 gneE0_1 gneE0_2" intLanes=":gneJ1_0_0 :gneJ1_1_0 :gneJ1_1_1 :gneJ1_1_2 :gneJ1_20_0 :gneJ1_5_0 :gneJ1_6_0 :gneJ1_6_1 :gneJ1_6_2 :gneJ1_21_0 :gneJ1_10_0 :gneJ1_11_0 :gneJ1_11_1 :gneJ1_11_2 :gneJ1_22_0 :gneJ1_15_0 :gneJ1_16_0 :gneJ1_16_1 :gneJ1_16_2 :gneJ1_23_0" shape="490.40,13.60 509.60,13.60 510.04,11.38 510.60,10.60 511.38,10.04 512.38,9.71 513.60,9.60 513.60,-9.60 511.38,-10.04 510.60,-10.60 510.04,-11.38 509.71,-12.38 509.60,-13.60 490.40,-13.60 489.96,-11.38 489.40,-10.60 488.62,-10.04 487.62,-9.71 486.40,-9.60 486.40,9.60 488.62,10.04 489.40,10.60 489.96,11.38 490.29,12.38">
        <request index="0"  response="00000000000000000000" foes="00000000000111000000" cont="0"/>
        <request index="1"  response="10000000001000000000" foes="11111100001111000000" cont="0"/>
        <request index="2"  response="10000000001000000000" foes="11111100001111000000" cont="0"/>
        <request index="3"  response="10000000001000000000" foes="11111100001111000000" cont="0"/>
        <request index="4"  response="10000011101000000000" foes="11110011101111000000" cont="1"/>
        <request index="5"  response="00000011100000000000" foes="00000011100000000000" cont="0"/>
        <request index="6"  response="00000111100000011111" foes="10000111100000011111" cont="0"/>
        <request index="7"  response="00000111100000011111" foes="10000111100000011111" cont="0"/>
        <request index="8"  response="00000111100000011111" foes="10000111100000011111" cont="0"/>
        <request index="9"  response="01110111100000011110" foes="01110111100000011110" cont="1"/>
        <request index="10" response="00000000000000000000" foes="01110000000000000000" cont="0"/>
        <request index="11" response="10000000001000000000" foes="11110000001111110000" cont="0"/>
        <request index="12" response="10000000001000000000" foes="11110000001111110000" cont="0"/>
        <request index="13" response="10000000001000000000" foes="11110000001111110000" cont="0"/>
        <request index="14" response="10000000001000001110" foes="11110000001111001110" cont="1"/>
        <request index="15" response="00000000000000001110" foes="00000000000000001110" cont="0"/>
        <request index="16" response="00000111110000011110" foes="00000111111000011110" cont="0"/>
        <request index="17" response="00000111110000011110" foes="00000111111000011110" cont="0"/>
        <request index="18" response="00000111110000011110" foes="00000111111000011110" cont="0"/>
        <request index="19" response="00000111100111011110" foes="00000111100111011110" cont="1"/>
    </junction>
    <junction id="gneJ2" type="dead_end" x="500.00" y="-500.00" incLanes="gneE1_0 gneE1_1 gneE1_2" intLanes="" shape="500.00,-500.00 490.40,-500.00 500.00,-500.00"/>
    <junction id="gneJ3" type="dead_end" x="1000.00" y="0.00" incLanes="gneE2_0 gneE2_1 gneE2_2" intLanes="" shape="1000.00,0.00 1000.00,-9.60 1000.00,0.00"/>
    <junction id="gneJ4" type="dead_end" x="500.00" y="500.00" incLanes="gneE3_0 gneE3_1 gneE3_2" intLanes="" shape="500.00,500.00 509.60,500.00 500.00,500.00"/>

    <junction id=":gneJ1_20_0" type="internal" x="500.00" y="5.87" incLanes=":gneJ1_4_0 -gneE1_0 -gneE1_1 -gneE1_2" intLanes=":gneJ1_6_0 :gneJ1_6_1 :gneJ1_6_2 :gneJ1_9_0 :gneJ1_10_0 :gneJ1_11_0 :gneJ1_11_1 :gneJ1_11_2 :gneJ1_16_0 :gneJ1_16_1 :gneJ1_16_2 :gneJ1_19_0"/>
    <junction id=":gneJ1_21_0" type="internal" x="505.87" y="0.00" incLanes=":gneJ1_9_0 gneE0_0 gneE0_1 gneE0_2" intLanes=":gneJ1_1_0 :gneJ1_1_1 :gneJ1_1_2 :gneJ1_4_0 :gneJ1_11_0 :gneJ1_11_1 :gneJ1_11_2 :gneJ1_14_0 :gneJ1_15_0 :gneJ1_16_0 :gneJ1_16_1 :gneJ1_16_2"/>
    <junction id=":gneJ1_22_0" type="internal" x="500.00" y="-5.87" incLanes=":gneJ1_14_0 -gneE3_0 -gneE3_1 -gneE3_2" intLanes=":gneJ1_0_0 :gneJ1_1_0 :gneJ1_1_1 :gneJ1_1_2 :gneJ1_6_0 :gneJ1_6_1 :gneJ1_6_2 :gneJ1_9_0 :gneJ1_16_0 :gneJ1_16_1 :gneJ1_16_2 :gneJ1_19_0"/>
    <junction id=":gneJ1_23_0" type="internal" x="494.13" y="-0.00" incLanes=":gneJ1_19_0 -gneE2_0 -gneE2_1 -gneE2_2" intLanes=":gneJ1_1_0 :gneJ1_1_1 :gneJ1_1_2 :gneJ1_4_0 :gneJ1_5_0 :gneJ1_6_0 :gneJ1_6_1 :gneJ1_6_2 :gneJ1_11_0 :gneJ1_11_1 :gneJ1_11_2 :gneJ1_14_0"/>

    <connection from="-gneE1" to="gneE2" fromLane="0" toLane="0" via=":gneJ1_10_0" tl="gneJ1" linkIndex="10" dir="r" state="O"/>
    <connection from="-gneE1" to="gneE3" fromLane="0" toLane="0" via=":gneJ1_11_0" tl="gneJ1" linkIndex="11" dir="s" state="O"/>
    <connection from="-gneE1" to="gneE3" fromLane="1" toLane="1" via=":gneJ1_11_1" tl="gneJ1" linkIndex="12" dir="s" state="O"/>
    <connection from="-gneE1" to="gneE3" fromLane="2" toLane="2" via=":gneJ1_11_2" tl="gneJ1" linkIndex="13" dir="s" state="O"/>
    <connection from="-gneE1" to="-gneE0" fromLane="2" toLane="2" via=":gneJ1_14_0" tl="gneJ1" linkIndex="14" dir="l" state="o"/>
    <connection from="-gneE2" to="gneE3" fromLane="0" toLane="0" via=":gneJ1_5_0" tl="gneJ1" linkIndex="5" dir="r" state="o"/>
    <connection from="-gneE2" to="-gneE0" fromLane="0" toLane="0" via=":gneJ1_6_0" tl="gneJ1" linkIndex="6" dir="s" state="o"/>
    <connection from="-gneE2" to="-gneE0" fromLane="1" toLane="1" via=":gneJ1_6_1" tl="gneJ1" linkIndex="7" dir="s" state="o"/>
    <connection from="-gneE2" to="-gneE0" fromLane="2" toLane="2" via=":gneJ1_6_2" tl="gneJ1" linkIndex="8" dir="s" state="o"/>
    <connection from="-gneE2" to="gneE1" fromLane="2" toLane="2" via=":gneJ1_9_0" tl="gneJ1" linkIndex="9" dir="l" state="o"/>
    <connection from="-gneE3" to="-gneE0" fromLane="0" toLane="0" via=":gneJ1_0_0" tl="gneJ1" linkIndex="0" dir="r" state="O"/>
    <connection from="-gneE3" to="gneE1" fromLane="0" toLane="0" via=":gneJ1_1_0" tl="gneJ1" linkIndex="1" dir="s" state="O"/>
    <connection from="-gneE3" to="gneE1" fromLane="1" toLane="1" via=":gneJ1_1_1" tl="gneJ1" linkIndex="2" dir="s" state="O"/>
    <connection from="-gneE3" to="gneE1" fromLane="2" toLane="2" via=":gneJ1_1_2" tl="gneJ1" linkIndex="3" dir="s" state="O"/>
    <connection from="-gneE3" to="gneE2" fromLane="2" toLane="2" via=":gneJ1_4_0" tl="gneJ1" linkIndex="4" dir="l" state="o"/>
    <connection from="gneE0" to="gneE1" fromLane="0" toLane="0" via=":gneJ1_15_0" tl="gneJ1" linkIndex="15" dir="r" state="o"/>
    <connection from="gneE0" to="gneE2" fromLane="0" toLane="0" via=":gneJ1_16_0" tl="gneJ1" linkIndex="16" dir="s" state="o"/>
    <connection from="gneE0" to="gneE2" fromLane="1" toLane="1" via=":gneJ1_16_1" tl="gneJ1" linkIndex="17" dir="s" state="o"/>
    <connection from="gneE0" to="gneE2" fromLane="2" toLane="2" via=":gneJ1_16_2" tl="gneJ1" linkIndex="18" dir="s" state="o"/>
    <connection from="gneE0" to="gneE3" fromLane="2" toLane="2" via=":gneJ1_19_0" tl="gneJ1" linkIndex="19" dir="l" state="o"/>

    <connection from=":gneJ1_0" to="-gneE0" fromLane="0" toLane="0" dir="r" state="M"/>
    <connection from=":gneJ1_1" to="gneE1" fromLane="0" toLane="0" dir="s" state="M"/>
    <connection from=":gneJ1_1" to="gneE1" fromLane="1" toLane="1" dir="s" state="M"/>
    <connection from=":gneJ1_1" to="gneE1" fromLane="2" toLane="2" dir="s" state="M"/>
    <connection from=":gneJ1_4" to="gneE2" fromLane="0" toLane="2" via=":gneJ1_20_0" dir="l" state="m"/>
    <connection from=":gneJ1_20" to="gneE2" fromLane="0" toLane="2" dir="l" state="M"/>
    <connection from=":gneJ1_5" to="gneE3" fromLane="0" toLane="0" dir="r" state="M"/>
    <connection from=":gneJ1_6" to="-gneE0" fromLane="0" toLane="0" dir="s" state="M"/>
    <connection from=":gneJ1_6" to="-gneE0" fromLane="1" toLane="1" dir="s" state="M"/>
    <connection from=":gneJ1_6" to="-gneE0" fromLane="2" toLane="2" dir="s" state="M"/>
    <connection from=":gneJ1_9" to="gneE1" fromLane="0" toLane="2" via=":gneJ1_21_0" dir="l" state="m"/>
    <connection from=":gneJ1_21" to="gneE1" fromLane="0" toLane="2" dir="l" state="M"/>
    <connection from=":gneJ1_10" to="gneE2" fromLane="0" toLane="0" dir="r" state="M"/>
    <connection from=":gneJ1_11" to="gneE3" fromLane="0" toLane="0" dir="s" state="M"/>
    <connection from=":gneJ1_11" to="gneE3" fromLane="1" toLane="1" dir="s" state="M"/>
    <connection from=":gneJ1_11" to="gneE3" fromLane="2" toLane="2" dir="s" state="M"/>
    <connection from=":gneJ1_14" to="-gneE0" fromLane="0" toLane="2" via=":gneJ1_22_0" dir="l" state="m"/>
    <connection from=":gneJ1_22" to="-gneE0" fromLane="0" toLane="2" dir="l" state="M"/>
    <connection from=":gneJ1_15" to="gneE1" fromLane="0" toLane="0" dir="r" state="M"/>
    <connection from=":gneJ1_16" to="gneE2" fromLane="0" toLane="0" dir="s" state="M"/>
    <connection from=":gneJ1_16" to="gneE2" fromLane="1" toLane="1" dir="s" state="M"/>
    <connection from=":gneJ1_16" to="gneE2" fromLane="2" toLane="2" dir="s" state="M"/>
    <connection from=":gneJ1_19" to="gneE3" fromLane="0" toLane="2" via=":gneJ1_23_0" dir="l" state="m"/>
    <connection from=":gneJ1_23" to="gneE3" fromLane="0" toLane="2" dir="l" state="M"/>

</net>
