<?xml version="1.0" encoding="UTF-8"?>

<!-- generated on 2022-09-19 21:50:51 by Eclipse SUMO netedit Version 1.9.2
<configuration xmlns:xsi="http://www.w3.org/2001/XMLSchema-instance" xsi:noNamespaceSchemaLocation="http://sumo.dlr.de/xsd/netconvertConfiguration.xsd">

    <input>
        <sumo-net-file value="/Users/thinhhoang/Documents/anomaly-detection-ngsim/sumotraci_intersex/highway_slower/roads.net.xml"/>
    </input>

    <output>
        <output-file value="/Users/thinhhoang/Documents/anomaly-detection-ngsim/sumotraci_intersex/highway_slower/roads.net.xml"/>
    </output>

    <processing>
        <geometry.min-radius.fix.railways value="false"/>
        <geometry.max-grade.fix value="false"/>
        <offset.disable-normalization value="true"/>
        <lefthand value="false"/>
    </processing>

    <junctions>
        <no-internal-links value="true"/>
        <no-turnarounds value="true"/>
        <junctions.corner-detail value="5"/>
        <junctions.limit-turn-speed value="5.5"/>
        <rectangular-lane-cut value="false"/>
    </junctions>

    <pedestrian>
        <walkingareas value="false"/>
    </pedestrian>

    <netedit>
        <route-files value="/Users/thinhhoang/Documents/anomaly-detection-ngsim/sumotraci_intersex/highway_slower/demands.rou.xml"/>
    </netedit>

    <report>
        <aggregate-warnings value="5"/>
    </report>

</configuration>
-->

<routes xmlns:xsi="http://www.w3.org/2001/XMLSchema-instance" xsi:noNamespaceSchemaLocation="http://sumo.dlr.de/xsd/routes_file.xsd">
    <vType id="DEFAULT_VEHTYPE" maxSpeed="40.00" vClass="passenger" accel="2.20" decel="3.50"/>
    <route edges="gneE0" color="yellow" id="route_0"/>
    <flow id="flow_0" begin="0.00" departLane="random" departSpeed="10.00" route="route_0" end="1800.00" probability="0.70"/>
</routes>
