<?xml version="1.0" encoding="UTF-8"?>

<!-- generated on 2022-09-19 21:51:32 by Eclipse SUMO GUI Version 1.9.2
-->

<configuration xmlns:xsi="http://www.w3.org/2001/XMLSchema-instance" xsi:noNamespaceSchemaLocation="http://sumo.dlr.de/xsd/sumoConfiguration.xsd">

    <input>
        <net-file value="/Users/thinhhoang/Documents/anomaly-detection-ngsim/sumotraci_intersex/highway_slower/roads.net.xml"/>
        <route-files value="/Users/thinhhoang/Documents/anomaly-detection-ngsim/sumotraci_intersex/highway_slower/demands.rou.xml"/>
    </input>

    <step-length value="0.1" />

</configuration>
